*Heading
** Job name: under Model name: Model-1
** Generated by: Abaqus/CAE 2018
*Preprint, echo=NO, model=NO, history=NO, contact=NO
**
** PARTS
**
*Part, name=box
*Node
      1,        1000.,        1000.,        1000.
      2,        1000.,        1000.,           0.
      3,        1000.,           0.,           0.
      4,        1000.,           0.,        1000.
      5,           0.,           0.,        1000.
      6,           0.,           0.,           0.
      7,           0.,        1000.,        1000.
      8,           0.,        1000.,           0.
      9,        1000.,        1000.,         950.
     10,        1000.,        1000.,         900.
     11,        1000.,        1000.,         850.
     12,        1000.,        1000.,         800.
     13,        1000.,        1000.,         750.
     14,        1000.,        1000.,         700.
     15,        1000.,        1000.,         650.
     16,        1000.,        1000.,         600.
     17,        1000.,        1000.,         550.
     18,        1000.,        1000.,         500.
     19,        1000.,        1000.,         450.
     20,        1000.,        1000.,         400.
** ... 216 like lines cut
*Element, type=B31
 1,  1,  9
 2,  9, 10
 3, 10, 11
 4, 11, 12
 5, 12, 13
 6, 13, 14
 7, 14, 15
 8, 15, 16
 9, 16, 17
10, 17, 18
11, 18, 19
12, 19, 20
13, 20, 21
14, 21, 22
15, 22, 23
16, 23, 24
17, 24, 25
18, 25, 26
19, 26, 27
20, 27,  2
** ... 220 like lines cut
*Nset, nset=Wire-3-Set-1
   1,   2,   3,   4,   5,   6,   7,   8,   9,  10,  11,  12,  13,  14,  15,  16
  17,  18,  19,  20,  21,  22,  23,  24,  25,  26,  27,  47,  48,  49,  50,  51
  52,  53,  54,  55,  56,  57,  58,  59,  60,  61,  62,  63,  64,  65,  85,  86
  87,  88,  89,  90,  91,  92,  93,  94,  95,  96,  97,  98,  99, 100, 101, 102
 103, 218, 219, 220, 221, 222, 223, 224, 225, 226, 227, 228, 229, 230, 231, 232
 233, 234, 235, 236
*Elset, elset=Wire-3-Set-1
   1,   2,   3,   4,   5,   6,   7,   8,   9,  10,  11,  12,  13,  14,  15,  16
  17,  18,  19,  20,  41,  42,  43,  44,  45,  46,  47,  48,  49,  50,  51,  52
  53,  54,  55,  56,  57,  58,  59,  60,  81,  82,  83,  84,  85,  86,  87,  88
  89,  90,  91,  92,  93,  94,  95,  96,  97,  98,  99, 100, 221, 222, 223, 224
 225, 226, 227, 228, 229, 230, 231, 232, 233, 234, 235, 236, 237, 238, 239, 240
*Nset, nset=_PickedSet6, internal, generate
   1,  236,    1
*Elset, elset=_PickedSet6, internal, generate
   1,  240,    1
** Region: (beam:Picked), (Beam Orientation:Picked)
*Elset, elset=_I1, internal
   1,   2,   3,   4,   5,   6,   7,   8,   9,  10,  11,  12,  13,  14,  15,  16
  17,  18,  19,  20,  41,  42,  43,  44,  45,  46,  47,  48,  49,  50,  51,  52
  53,  54,  55,  56,  57,  58,  59,  60,  81,  82,  83,  84,  85,  86,  87,  88
  89,  90,  91,  92,  93,  94,  95,  96,  97,  98,  99, 100, 221, 222, 223, 224
 225, 226, 227, 228, 229, 230, 231, 232, 233, 234, 235, 236, 237, 238, 239, 240
** Section: beam  Profile: circular
*Beam Section, elset=_I1, material=Material-1, temperature=GRADIENTS, section=CIRC
100.
1.,0.,0.
** Region: (beam:Picked), (Beam Orientation:Picked)
*Elset, elset=_I2, internal
  21,  22,  23,  24,  25,  26,  27,  28,  29,  30,  31,  32,  33,  34,  35,  36
  37,  38,  39,  40,  61,  62,  63,  64,  65,  66,  67,  68,  69,  70,  71,  72
  73,  74,  75,  76,  77,  78,  79,  80, 101, 102, 103, 104, 105, 106, 107, 108
 109, 110, 111, 112, 113, 114, 115, 116, 117, 118, 119, 120, 121, 122, 123, 124
 125, 126, 127, 128, 129, 130, 131, 132, 133, 134, 135, 136, 137, 138, 139, 140
 141, 142, 143, 144, 145, 146, 147, 148, 149, 150, 151, 152, 153, 154, 155, 156
 157, 158, 159, 160, 161, 162, 163, 164, 165, 166, 167, 168, 169, 170, 171, 172
 173, 174, 175, 176, 177, 178, 179, 180, 181, 182, 183, 184, 185, 186, 187, 188
 189, 190, 191, 192, 193, 194, 195, 196, 197, 198, 199, 200, 201, 202, 203, 204
 205, 206, 207, 208, 209, 210, 211, 212, 213, 214, 215, 216, 217, 218, 219, 220
** Section: beam  Profile: circular
*Beam Section, elset=_I2, material=Material-1, temperature=GRADIENTS, section=CIRC
100.
0.,0.,-1.
*End Part
**  
*Part, name=wave
*Node
      1,           0.,           0.,           0.
      2,         100.,           0.,           0.
      3,         200.,           0.,           0.
      4,         300.,           0.,           0.
      5,         400.,           0.,           0.
      6,         500.,           0.,           0.
      7,         600.,           0.,           0.
      8,         700.,           0.,           0.
      9,         800.,           0.,           0.
     10,         900.,           0.,           0.
     11,        1000.,           0.,           0.
     12,        1100.,           0.,           0.
     13,        1200.,           0.,           0.
     14,        1300.,           0.,           0.
     15,        1400.,           0.,           0.
     16,        1500.,           0.,           0.
     17,        1600.,           0.,           0.
     18,        1700.,           0.,           0.
     19,        1800.,           0.,           0.
     20,        1900.,           0.,           0.
** ... 10181 like lines cut
*Element, type=SFM3D4
    1,     1,     2,   103,   102
    2,     2,     3,   104,   103
    3,     3,     4,   105,   104
    4,     4,     5,   106,   105
    5,     5,     6,   107,   106
    6,     6,     7,   108,   107
    7,     7,     8,   109,   108
    8,     8,     9,   110,   109
    9,     9,    10,   111,   110
   10,    10,    11,   112,   111
   11,    11,    12,   113,   112
   12,    12,    13,   114,   113
   13,    13,    14,   115,   114
   14,    14,    15,   116,   115
   15,    15,    16,   117,   116
   16,    16,    17,   118,   117
   17,    17,    18,   119,   118
   18,    18,    19,   120,   119
   19,    19,    20,   121,   120
   20,    20,    21,   122,   121
** ... 9980 like lines cut
*Elset, elset=Set-1, generate
     1,  10000,      1
*SURFACE SECTION, ELSET=Set-1, AQUAVISUALIZATION=YES
*End Part
**  
**
** ASSEMBLY
**
*Assembly, name=Assembly
**  
*Instance, name=box-1, part=box
       -500.,        -500.,        8700.
*End Instance
**  
*Instance, name=wave-1, part=wave
      -5000.,       -5000.,       10000.
*End Instance
**  
*Nset, nset=_PickedSet11, internal, instance=box-1, generate
   1,  236,    1
*Elset, elset=_PickedSet11, internal, instance=box-1, generate
   1,  240,    1
*End Assembly
** 
** MATERIALS
** 
** lighter than water
*Material, name=Material-1
*Density
 5e-10,
*Elastic
207000., 0.3
** ----------------------------------------------------------------
** 
*AQUA
0.,10000.,9810.,1.025e-9
0.0,0.0,0.0,0.0
0.1,0.0,0.0,10000.0
*WAVE, TYPE=AIRY
125.,2000.,0,1,0
100.,1500.,0,0.707,0.707
** STEP: Step-1
**
*Step, name=Step-1, nlgeom=YES, inc=1000
*Dynamic
0.01,10.,0.0001,0.1
** 
** LOADS
** 
** Name: Load-1   Type: Line load
*Dload
_PickedSet11, FDD, 1.0, 200., 0.47, 1.0
**
*Dload
_PickedSet11, Pb, 1.0, 200
** Name: gravity   Type: Gravity
*Dload
, GRAV, 9810., 0., 0., -1.
** 
** OUTPUT REQUESTS
** 
*Restart, write, frequency=0
** 
** FIELD OUTPUT: F-Output-1
** 
*Output, field, variable=PRESELECT, time interval=0.1
** 
** HISTORY OUTPUT: H-Output-1
** 
*Output, history, variable=PRESELECT
*End Step
