*Heading
** Job name: sans_aqua Model name: Model-1
** Generated by: Abaqus/CAE 2018
*Preprint, echo=NO, model=NO, history=NO, contact=NO
**
** PARTS
**
*Part, name=structure
*Node
      1,       -1000.,        1000.,        2000.
      2,       -1000.,        1000.,           0.
      3,       -1000.,       -1000.,           0.
      4,       -1000.,       -1000.,        2000.
      5,        1000.,       -1000.,        2000.
      6,        1000.,        1000.,        2000.
      7,        1000.,        1000.,           0.
      8,           0.,           0.,           0.
      9,        1000.,       -1000.,           0.
     10,           0.,           0.,      -10000.
     11,       -1000.,        1000.,        1960.
     12,       -1000.,        1000.,        1920.
     13,       -1000.,        1000.,        1880.
     14,       -1000.,        1000.,        1840.
     15,       -1000.,        1000.,        1800.
     16,       -1000.,        1000.,        1760.
     17,       -1000.,        1000.,        1720.
     18,       -1000.,        1000.,        1680.
     19,       -1000.,        1000.,        1640.
     20,       -1000.,        1000.,        1600.
** ... 963 like lines cut
*Element, type=B31
 1,  1, 11
 2, 11, 12
 3, 12, 13
 4, 13, 14
 5, 14, 15
 6, 15, 16
 7, 16, 17
 8, 17, 18
 9, 18, 19
10, 19, 20
11, 20, 21
12, 21, 22
13, 22, 23
14, 23, 24
15, 24, 25
16, 25, 26
17, 26, 27
18, 27, 28
19, 28, 29
20, 29, 30
** ... 970 like lines cut
*Nset, nset=_PickedSet7, internal, generate
   1,  983,    1
*Elset, elset=_PickedSet7, internal, generate
   1,  990,    1
** Region: (beam:Picked), (Beam Orientation:Picked)
*Elset, elset=_I1, internal
   1,   2,   3,   4,   5,   6,   7,   8,   9,  10,  11,  12,  13,  14,  15,  16
  17,  18,  19,  20,  21,  22,  23,  24,  25,  26,  27,  28,  29,  30,  31,  32
  33,  34,  35,  36,  37,  38,  39,  40,  41,  42,  43,  44,  45,  46,  47,  48
  49,  50, 101, 102, 103, 104, 105, 106, 107, 108, 109, 110, 111, 112, 113, 114
 115, 116, 117, 118, 119, 120, 121, 122, 123, 124, 125, 126, 127, 128, 129, 130
 131, 132, 133, 134, 135, 136, 137, 138, 139, 140, 141, 142, 143, 144, 145, 146
 147, 148, 149, 150, 471, 472, 473, 474, 475, 476, 477, 478, 479, 480, 481, 482
 483, 484, 485, 486, 487, 488, 489, 490, 491, 492, 493, 494, 495, 496, 497, 498
 499, 500, 501, 502, 503, 504, 505, 506, 507, 508, 509, 510, 511, 512, 513, 514
 515, 516, 517, 518, 519, 520, 656, 657, 658, 659, 660, 661, 662, 663, 664, 665
 666, 667, 668, 669, 670, 671, 672, 673, 674, 675, 676, 677, 678, 679, 680, 681
 682, 683, 684, 685, 686, 687, 688, 689, 690, 691, 692, 693, 694, 695, 696, 697
 698, 699, 700, 701, 702, 703, 704, 705, 741, 742, 743, 744, 745, 746, 747, 748
 749, 750, 751, 752, 753, 754, 755, 756, 757, 758, 759, 760, 761, 762, 763, 764
 765, 766, 767, 768, 769, 770, 771, 772, 773, 774, 775, 776, 777, 778, 779, 780
 781, 782, 783, 784, 785, 786, 787, 788, 789, 790, 791, 792, 793, 794, 795, 796
 797, 798, 799, 800, 801, 802, 803, 804, 805, 806, 807, 808, 809, 810, 811, 812
 813, 814, 815, 816, 817, 818, 819, 820, 821, 822, 823, 824, 825, 826, 827, 828
 829, 830, 831, 832, 833, 834, 835, 836, 837, 838, 839, 840, 841, 842, 843, 844
 845, 846, 847, 848, 849, 850, 851, 852, 853, 854, 855, 856, 857, 858, 859, 860
** ... 9 like lines cut
** Section: beam  Profile: circular
*Beam Section, elset=_I1, material=arbitrary, temperature=GRADIENTS, section=CIRC
50.
1.,0.,0.
** Region: (beam:Picked), (Beam Orientation:Picked)
*Elset, elset=_I2, internal
  51,  52,  53,  54,  55,  56,  57,  58,  59,  60,  61,  62,  63,  64,  65,  66
  67,  68,  69,  70,  71,  72,  73,  74,  75,  76,  77,  78,  79,  80,  81,  82
  83,  84,  85,  86,  87,  88,  89,  90,  91,  92,  93,  94,  95,  96,  97,  98
  99, 100, 151, 152, 153, 154, 155, 156, 157, 158, 159, 160, 161, 162, 163, 164
 165, 166, 167, 168, 169, 170, 171, 172, 173, 174, 175, 176, 177, 178, 179, 180
 181, 182, 183, 184, 185, 186, 187, 188, 189, 190, 191, 192, 193, 194, 195, 196
 197, 198, 199, 200, 201, 202, 203, 204, 205, 206, 207, 208, 209, 210, 211, 212
 213, 214, 215, 216, 217, 218, 219, 220, 221, 222, 223, 224, 225, 226, 227, 228
 229, 230, 231, 232, 233, 234, 235, 236, 237, 238, 239, 240, 241, 242, 243, 244
 245, 246, 247, 248, 249, 250, 251, 252, 253, 254, 255, 256, 257, 258, 259, 260
 261, 262, 263, 264, 265, 266, 267, 268, 269, 270, 271, 272, 273, 274, 275, 276
 277, 278, 279, 280, 281, 282, 283, 284, 285, 286, 287, 288, 289, 290, 291, 292
 293, 294, 295, 296, 297, 298, 299, 300, 301, 302, 303, 304, 305, 306, 307, 308
 309, 310, 311, 312, 313, 314, 315, 316, 317, 318, 319, 320, 321, 322, 323, 324
 325, 326, 327, 328, 329, 330, 331, 332, 333, 334, 335, 336, 337, 338, 339, 340
 341, 342, 343, 344, 345, 346, 347, 348, 349, 350, 351, 352, 353, 354, 355, 356
 357, 358, 359, 360, 361, 362, 363, 364, 365, 366, 367, 368, 369, 370, 371, 372
 373, 374, 375, 376, 377, 378, 379, 380, 381, 382, 383, 384, 385, 386, 387, 388
 389, 390, 391, 392, 393, 394, 395, 396, 397, 398, 399, 400, 401, 402, 403, 404
 405, 406, 407, 408, 409, 410, 411, 412, 413, 414, 415, 416, 417, 418, 419, 420
** ... 14 like lines cut
** Section: beam  Profile: circular
*Beam Section, elset=_I2, material=arbitrary, temperature=GRADIENTS, section=CIRC
50.
0.,0.,-1.
*End Part
**  
*Part, name=wave
*Node
      1,        2500.,        2500.,           0.
      2,        2460.,        2500.,           0.
      3,        2420.,        2500.,           0.
      4,        2380.,        2500.,           0.
      5,        2340.,        2500.,           0.
      6,        2300.,        2500.,           0.
      7,        2260.,        2500.,           0.
      8,        2220.,        2500.,           0.
      9,        2180.,        2500.,           0.
     10,        2140.,        2500.,           0.
     11,        2100.,        2500.,           0.
     12,        2060.,        2500.,           0.
     13,        2020.,        2500.,           0.
     14,        1980.,        2500.,           0.
     15,        1940.,        2500.,           0.
     16,        1900.,        2500.,           0.
     17,        1860.,        2500.,           0.
     18,        1820.,        2500.,           0.
     19,        1780.,        2500.,           0.
     20,        1740.,        2500.,           0.
** ... 15856 like lines cut
*Element, type=SFM3D4
    1,     1,     2,   128,   127
    2,     2,     3,   129,   128
    3,     3,     4,   130,   129
    4,     4,     5,   131,   130
    5,     5,     6,   132,   131
    6,     6,     7,   133,   132
    7,     7,     8,   134,   133
    8,     8,     9,   135,   134
    9,     9,    10,   136,   135
   10,    10,    11,   137,   136
   11,    11,    12,   138,   137
   12,    12,    13,   139,   138
   13,    13,    14,   140,   139
   14,    14,    15,   141,   140
   15,    15,    16,   142,   141
   16,    16,    17,   143,   142
   17,    17,    18,   144,   143
   18,    18,    19,   145,   144
   19,    19,    20,   146,   145
   20,    20,    21,   147,   146
** ... 15605 like lines cut
*End Part
**  
**
** ASSEMBLY
**
*Assembly, name=Assembly
**  
*Instance, name=structure-1, part=structure
          0.,           0.,       10000.
*End Instance
**  
*Instance, name=wave-1, part=wave
          0.,           0.,        8000.
*End Instance
**  
*Nset, nset=_PickedSet6, internal, instance=structure-1
 10,
*End Assembly
** 
** MATERIALS
** 
*Material, name=arbitrary
*Density
 7.9e-09,
*Elastic
5175., 0.3
** 
** BOUNDARY CONDITIONS
** 
** Name: bc Type: Displacement/Rotation
*Boundary
_PickedSet6, 1, 1
_PickedSet6, 2, 2
_PickedSet6, 3, 3
_PickedSet6, 4, 4
_PickedSet6, 5, 5
_PickedSet6, 6, 6
** ----------------------------------------------------------------
** 
** STEP: dynamic
** 
*Step, name=dynamic, nlgeom=YES, inc=1000
*Dynamic
0.01,10.,0.0001,0.01
** 
** OUTPUT REQUESTS
** 
*Restart, write, frequency=0
** 
** FIELD OUTPUT: F-Output-1
** 
*Output, field, variable=PRESELECT, time interval=0.01
** 
** HISTORY OUTPUT: H-Output-1
** 
*Output, history, variable=PRESELECT
*End Step
